src/test/resources/testCaseOldActivePowerControl.xiidm
<?xml version="1.0" encoding="UTF-8"?>
<iidm:network xmlns:iidm="http://www.itesla_project.eu/schema/iidm/1_0" xmlns:apc="http://www.itesla_project.eu/schema/iidm/ext/active_power_control/1_0" xmlns:gapc="http://www.itesla_project.eu/schema/iidm/ext/generator_active_power_control/1_0" id="20140116_0830_2D4_UX1_pst" caseDate="2014-01-16T08:30:00.000+01:00" forecastDistance="0" sourceFormat="UCTE">
    <iidm:substation id="BBE1AA" country="BE">
        <iidm:voltageLevel id="BBE1AA1" nominalV="380.0" topologyKind="BUS_BREAKER">
            <iidm:busBreakerTopology>
                <iidm:bus id="BBE1AA1 " v="380.0" angle="-2.353799343109131"/>
                <iidm:bus id="BBE3AA1 " v="380.0" angle="0.0"/>
            </iidm:busBreakerTopology>
            <iidm:generator id="BBE1AA1 _generator" energySource="OTHER" minP="-0.0" maxP="9000.0" voltageRegulatorOn="true" targetP="1500.0" targetV="400.0" targetQ="-0.0" bus="BBE1AA1 " connectableBus="BBE1AA1 " p="-1500.0">
                <iidm:minMaxReactiveLimits minQ="-9000.0" maxQ="9000.0"/>
            </iidm:generator>
            <iidm:generator id="BBE3AA1 _generator" energySource="OTHER" minP="-0.0" maxP="9000.0" voltageRegulatorOn="true" targetP="2500.0" targetV="400.0" targetQ="-0.0" bus="BBE3AA1 " connectableBus="BBE3AA1 " p="-2500.0">
                <iidm:minMaxReactiveLimits minQ="-9000.0" maxQ="9000.0"/>
            </iidm:generator>
        </iidm:voltageLevel>
    </iidm:substation>
    <extension id="BBE1AA1 _generator">
        <gapc:generatorActivePowerControl participate="true" droop="0"/>
    </extension>
    <extension id="BBE3AA1 _generator">
        <apc:activePowerControl participate="true" droop="4"/>
    </extension>
</iidm:network>
